  0
SECTION
  2
ENTITIES
999
DXF created from EnergyPlus
999
Program Version,EnergyPlus, Version 9.1.0-08d2e308bb, YMD=2019.07.11 14:33
999
Polygon Action,TRIANGULATE3DFACE
999
Color Scheme,Default
999
Text - True North
  0
TEXT
  8
1
  6
Continuous
 62
  3
 10
      -21.59572
 20
        0.26384
 30
        0.10000
 40
 .25
  1
True North
 41
 0.0
  7
MONOTXT
210
0.0
220
0.0
230
1.0
999
Text - Building Title
  0
TEXT
  8
1
  6
Continuous
 62
  3
 10
      -24.59572
 20
       -3.73616
 30
        0.10000
 40
 .4
  1
Building - H2020_SENSMAT_VENICE
 41
 0.0
  7
MONOTXT
210
0.0
220
0.0
230
1.0
999
North Arrow Stem
  0
3DFACE
  8
1
 62
  3
 10
      -20.59572
 20
        0.26384
 30
        0.10000
 11
      -20.59572
 21
        0.26384
 31
        0.00000
 12
      -20.59572
 22
       -2.73616
 32
        0.00000
 13
      -20.59572
 23
       -2.73616
 33
        0.10000
999
North Arrow Head 1
  0
3DFACE
  8
1
 62
  3
 10
      -20.59572
 20
        0.26384
 30
        0.10000
 11
      -20.59572
 21
        0.26384
 31
        0.00000
 12
      -21.09572
 22
       -0.60219
 32
        0.00000
 13
      -21.09572
 23
       -0.60219
 33
        0.10000
999
North Arrow Head 2
  0
3DFACE
  8
1
 62
  3
 10
      -20.59572
 20
        0.26384
 30
        0.10000
 11
      -20.59572
 21
        0.26384
 31
        0.00000
 12
      -20.09572
 22
       -0.60219
 32
        0.00000
 13
      -20.09572
 23
       -0.60219
 33
        0.10000
999
North Arrow Side 1
  0
3DFACE
  8
1
 62
  3
 10
      -21.09572
 20
        1.76384
 30
        0.10000
 11
      -21.09572
 21
        1.76384
 31
        0.00000
 12
      -21.09572
 22
        0.76384
 32
        0.00000
 13
      -21.09572
 23
        0.76384
 33
        0.10000
999
North Arrow Side 2
  0
3DFACE
  8
1
 62
  3
 10
      -21.09572
 20
        1.76384
 30
        0.10000
 11
      -21.09572
 21
        1.76384
 31
        0.00000
 12
      -20.09572
 22
        0.76384
 32
        0.00000
 13
      -20.09572
 23
        0.76384
 33
        0.10000
999
North Arrow Side 3
  0
3DFACE
  8
1
 62
  3
 10
      -20.09572
 20
        1.76384
 30
        0.10000
 11
      -20.09572
 21
        1.76384
 31
        0.00000
 12
      -20.09572
 22
        0.76384
 32
        0.00000
 13
      -20.09572
 23
        0.76384
 33
        0.10000
999
Zone Names
999
Zone=1:Z_01
999
Z_01:Z_01_WE_N
  0
3DFACE
  8
Z_01
 62
 43
 10
      -10.59572
 20
        5.72107
 30
        6.00000
 11
      -10.59572
 21
        5.72107
 31
        0.00000
 12
       -7.51754
 22
       -2.73616
 32
        0.00000
 13
       -7.51754
 23
       -2.73616
 33
        6.00000
999
Z_01:Z_01_WI_E
  0
3DFACE
  8
Z_01
 62
 43
 10
       -3.07818
 20
        8.45723
 30
        6.00000
 11
       -3.07818
 21
        8.45723
 31
        0.00000
 12
      -10.59572
 22
        5.72107
 32
        0.00000
 13
      -10.59572
 23
        5.72107
 33
        6.00000
999
Z_01:Z_01_WI_S
  0
3DFACE
  8
Z_01
 62
 43
 10
       -0.00000
 20
        0.00000
 30
        6.00000
 11
       -0.00000
 21
        0.00000
 31
        0.00000
 12
       -3.07818
 22
        8.45723
 32
        0.00000
 13
       -3.07818
 23
        8.45723
 33
        6.00000
999
Z_01:Z_01_WI_W
  0
3DFACE
  8
Z_01
 62
 43
 10
       -7.51754
 20
       -2.73616
 30
        6.00000
 11
       -7.51754
 21
       -2.73616
 31
        0.00000
 12
       -0.00000
 22
        0.00000
 32
        0.00000
 13
       -0.00000
 23
        0.00000
 33
        6.00000
999
Z_01:Z_01_F
  0
3DFACE
  8
Z_01
 62
  8
 10
       -0.00000
 20
        0.00000
 30
        0.00000
 11
       -7.51754
 21
       -2.73616
 31
        0.00000
 12
      -10.59572
 22
        5.72107
 32
        0.00000
 13
       -3.07818
 23
        8.45723
 33
        0.00000
999
Z_01:Z_01_C
  0
3DFACE
  8
Z_01
 62
 15
 10
       -0.00000
 20
        0.00000
 30
        6.00000
 11
       -3.07818
 21
        8.45723
 31
        6.00000
 12
      -10.59572
 22
        5.72107
 32
        6.00000
 13
       -7.51754
 23
       -2.73616
 33
        6.00000
  0
ENDSEC
  0
EOF
